tests/data/state_estimation/current-sensor/basic-global-current-sensor/input.json
{
  "version": "1.0",
  "type": "input",
  "is_batch": false,
  "attributes": {},
  "data": {
    "node": [
      {"id": 1, "u_rated": 10000},
      {"id": 2, "u_rated": 10000}
    ],
    "line": [
      {"id": 3, "from_node": 1, "to_node": 2, "from_status": 1, "to_status": 1, "r1": 0.000416, "x1": 0.000136, "c1": 1e-09, "tan1": 0}
    ],
    "source": [
      {"id": 4, "node": 1, "status": 1, "u_ref": 1}
    ],
    "sym_load": [
      {"id": 5, "node": 2, "status": 1, "type": 0}
    ],
    "sym_voltage_sensor": [
      {"id": 6, "measured_object": 1, "u_sigma": 200, "u_measured": 10000, "u_angle_measured": 0.0}
    ],
    "sym_current_sensor": [
      {"id": 7, "measured_object": 3, "measured_terminal_type": 1, "angle_measurement_type": 1, "i_sigma": 1, "i_angle_sigma": 0.05, "i_measured": 10, "i_angle_measured": 0.3}
    ]
  }
}